<?xml version="1.0" encoding="UTF-8"?>

<!-- generated on 2021-08-02 17:10:20 by Eclipse SUMO polyconvert Version 1.9.2
<configuration xmlns:xsi="http://www.w3.org/2001/XMLSchema-instance" xsi:noNamespaceSchemaLocation="http://sumo.dlr.de/xsd/polyconvertConfiguration.xsd">

    <input>
        <net-file value="test.net.xml"/>
        <osm-files value="map.osm"/>
        <type-file value="typemap.xml"/>
    </input>

    <output>
        <output-file value="map.poly.xml"/>
    </output>

    <processing>
        <poi-layer-offset value="5"/>
    </processing>

    <report>
        <xml-validation value="never"/>
    </report>

</configuration>
-->

<additional xmlns:xsi="http://www.w3.org/2001/XMLSchema-instance" xsi:noNamespaceSchemaLocation="http://sumo.dlr.de/xsd/additional_file.xsd">
    <location netOffset="-628387.03,-4834880.22" convBoundary="-0.00,-0.00,2462.98,1975.87" origBoundary="-79.407816,43.655519,-79.376843,43.673196" projParameter="+proj=utm +zone=17 +ellps=WGS84 +datum=WGS84 +units=m +no_defs"/>

    <poly id="10905424" type="amenity" color="237,199,199" fill="1" layer="-1.00" shape="1154.557045,1261.653950 1118.349945,1355.058756 1187.943944,1378.394400 1178.727280,1408.691974 1263.582377,1434.801752 1290.273048,1355.601252 1292.934352,1347.708833 1295.749827,1339.352762 1298.550597,1330.507545 1358.446501,1348.201666 1372.130955,1303.002890 1427.906077,1320.673235 1413.965612,1366.578017 1433.002324,1372.247224 1458.844580,1287.842230 1438.041407,1281.338712 1437.092650,1279.109301 1445.646941,1251.010172 1450.783576,1233.610806 1465.025933,1224.110036 1496.009146,1233.033416 1548.161904,1252.434314 1594.576486,1111.399093 1560.760412,1100.886985 1587.297083,1027.362007 1536.544201,1010.132401 1478.736820,991.077423 1491.421062,951.770236 1497.011685,937.590657 1374.319953,899.144684 1308.214042,1103.340436 1300.534450,1118.379603 1290.831917,1131.679649 1282.941790,1139.692907 1268.866959,1151.374968 1254.721676,1157.955966 1241.441620,1162.342771 1222.831501,1165.837467 1199.566121,1166.497723 1189.648261,1169.694282 1182.906750,1174.630074 1155.159544,1168.915117 1154.694030,1162.550892 1153.133853,1156.487671 1151.022092,1151.002625 1148.858808,1148.594191 1130.588973,1128.685904 1115.986902,1110.126392 1108.404469,1094.758203 1101.499573,1077.303256 1094.183664,1056.496101 1099.784760,1019.228812 1173.017406,776.182543 1183.137400,752.168778 1201.847460,721.088493 1218.316248,692.875782 1232.601015,661.243197 1246.645703,625.772864 1254.728574,612.419131 1264.056284,600.178361 1274.157832,589.630288 1283.566140,581.557543 1299.875401,569.929902 1312.641974,562.966687 1324.504618,556.863699 1336.217005,550.191181 1345.223795,542.032959 1349.861063,535.834342 1356.873268,537.359148 1389.747390,542.952080 1389.983381,553.656078 1390.764967,559.104280 1392.262786,564.221950 1393.471167,567.211898 1406.741059,584.201773 1446.331842,552.916195 1464.951388,558.588407 1470.506192,559.562850 1566.494853,588.147602 1560.472039,606.285194 1567.580320,608.256512 1577.252164,611.133151 1588.068561,611.976595 1606.760987,608.073358 1613.536273,603.105287 1627.883648,558.397594 1479.293824,514.502529 1370.419395,479.813909 922.305290,341.389268 893.126640,332.336966 858.993399,322.122474 813.305807,308.729633 788.735602,301.622244 779.566159,298.589819 777.374754,298.869715 775.444725,299.399088 773.400054,301.270614 715.021005,484.477486 675.317037,472.045419 639.021515,461.045915 635.379281,462.108937 633.849107,463.657111 621.699620,455.801039 623.448985,448.324106 624.241610,440.684287 624.067075,433.003596 622.923019,425.404204 620.822997,418.019697 617.805608,410.939705 613.924508,404.309699 609.234427,398.219620 603.806220,392.759719 600.116246,388.766585 597.982835,386.458921 595.277790,382.840313 591.949009,379.776315 588.107239,377.380167 583.879994,375.732101 579.024947,374.849666 574.093975,374.976823 569.289517,376.073032 561.335014,377.386289 556.120901,377.974641 546.912666,379.885937 540.748732,382.044790 532.297326,385.703920 529.788718,387.377700 526.029518,389.905107 520.336429,394.839552 515.292127,400.430908 514.155785,402.053360 510.978528,406.614090 507.462491,413.268168 504.802169,420.305379 503.031953,427.615280 502.169892,435.098223 502.251018,442.610449 502.589524,450.160964 504.663976,457.622710 507.186675,464.426466 510.416927,470.510566 517.010330,479.548186 524.588916,487.271543 532.899879,495.497883 534.848106,497.368651 539.956175,502.277916 544.007670,503.833687 553.729145,522.575506 551.406532,525.063924 548.907032,528.359996 546.320841,533.643169 522.873439,608.109082 491.034361,730.488313 469.066388,802.327492 454.661572,830.348347 435.464384,891.530514 434.811425,894.862185 435.304997,897.293769 436.940541,899.480695 440.264460,901.111284 485.336110,915.312033 570.034602,941.620719 572.317170,944.131247 575.652598,945.162163 577.803963,945.692502 580.858427,944.562574 582.290449,943.079161 595.946381,947.220025 584.723156,985.490261 579.116681,1001.014584 569.585101,1030.617966 628.055256,1048.855614 615.733843,1097.226259 571.997000,1237.252456 588.017926,1241.683359 580.662461,1264.684629 622.859160,1277.264411 636.278643,1281.500820 628.202173,1307.587957 957.717560,1403.347442 1001.474095,1248.924621 1058.969937,1265.680729 1068.057105,1234.969416 1123.516385,1253.186580 1154.557045,1261.653950"/>
    <poly id="10905424#1" type="landuse" color="194,194,130" fill="1" layer="-3.00" shape="1154.557045,1261.653950 1118.349945,1355.058756 1187.943944,1378.394400 1178.727280,1408.691974 1263.582377,1434.801752 1290.273048,1355.601252 1292.934352,1347.708833 1295.749827,1339.352762 1298.550597,1330.507545 1358.446501,1348.201666 1372.130955,1303.002890 1427.906077,1320.673235 1413.965612,1366.578017 1433.002324,1372.247224 1458.844580,1287.842230 1438.041407,1281.338712 1437.092650,1279.109301 1445.646941,1251.010172 1450.783576,1233.610806 1465.025933,1224.110036 1496.009146,1233.033416 1548.161904,1252.434314 1594.576486,1111.399093 1560.760412,1100.886985 1587.297083,1027.362007 1536.544201,1010.132401 1478.736820,991.077423 1491.421062,951.770236 1497.011685,937.590657 1374.319953,899.144684 1308.214042,1103.340436 1300.534450,1118.379603 1290.831917,1131.679649 1282.941790,1139.692907 1268.866959,1151.374968 1254.721676,1157.955966 1241.441620,1162.342771 1222.831501,1165.837467 1199.566121,1166.497723 1189.648261,1169.694282 1182.906750,1174.630074 1155.159544,1168.915117 1154.694030,1162.550892 1153.133853,1156.487671 1151.022092,1151.002625 1148.858808,1148.594191 1130.588973,1128.685904 1115.986902,1110.126392 1108.404469,1094.758203 1101.499573,1077.303256 1094.183664,1056.496101 1099.784760,1019.228812 1173.017406,776.182543 1183.137400,752.168778 1201.847460,721.088493 1218.316248,692.875782 1232.601015,661.243197 1246.645703,625.772864 1254.728574,612.419131 1264.056284,600.178361 1274.157832,589.630288 1283.566140,581.557543 1299.875401,569.929902 1312.641974,562.966687 1324.504618,556.863699 1336.217005,550.191181 1345.223795,542.032959 1349.861063,535.834342 1356.873268,537.359148 1389.747390,542.952080 1389.983381,553.656078 1390.764967,559.104280 1392.262786,564.221950 1393.471167,567.211898 1406.741059,584.201773 1446.331842,552.916195 1464.951388,558.588407 1470.506192,559.562850 1566.494853,588.147602 1560.472039,606.285194 1567.580320,608.256512 1577.252164,611.133151 1588.068561,611.976595 1606.760987,608.073358 1613.536273,603.105287 1627.883648,558.397594 1479.293824,514.502529 1370.419395,479.813909 922.305290,341.389268 893.126640,332.336966 858.993399,322.122474 813.305807,308.729633 788.735602,301.622244 779.566159,298.589819 777.374754,298.869715 775.444725,299.399088 773.400054,301.270614 715.021005,484.477486 675.317037,472.045419 639.021515,461.045915 635.379281,462.108937 633.849107,463.657111 621.699620,455.801039 623.448985,448.324106 624.241610,440.684287 624.067075,433.003596 622.923019,425.404204 620.822997,418.019697 617.805608,410.939705 613.924508,404.309699 609.234427,398.219620 603.806220,392.759719 600.116246,388.766585 597.982835,386.458921 595.277790,382.840313 591.949009,379.776315 588.107239,377.380167 583.879994,375.732101 579.024947,374.849666 574.093975,374.976823 569.289517,376.073032 561.335014,377.386289 556.120901,377.974641 546.912666,379.885937 540.748732,382.044790 532.297326,385.703920 529.788718,387.377700 526.029518,389.905107 520.336429,394.839552 515.292127,400.430908 514.155785,402.053360 510.978528,406.614090 507.462491,413.268168 504.802169,420.305379 503.031953,427.615280 502.169892,435.098223 502.251018,442.610449 502.589524,450.160964 504.663976,457.622710 507.186675,464.426466 510.416927,470.510566 517.010330,479.548186 524.588916,487.271543 532.899879,495.497883 534.848106,497.368651 539.956175,502.277916 544.007670,503.833687 553.729145,522.575506 551.406532,525.063924 548.907032,528.359996 546.320841,533.643169 522.873439,608.109082 491.034361,730.488313 469.066388,802.327492 454.661572,830.348347 435.464384,891.530514 434.811425,894.862185 435.304997,897.293769 436.940541,899.480695 440.264460,901.111284 485.336110,915.312033 570.034602,941.620719 572.317170,944.131247 575.652598,945.162163 577.803963,945.692502 580.858427,944.562574 582.290449,943.079161 595.946381,947.220025 584.723156,985.490261 579.116681,1001.014584 569.585101,1030.617966 628.055256,1048.855614 615.733843,1097.226259 571.997000,1237.252456 588.017926,1241.683359 580.662461,1264.684629 622.859160,1277.264411 636.278643,1281.500820 628.202173,1307.587957 957.717560,1403.347442 1001.474095,1248.924621 1058.969937,1265.680729 1068.057105,1234.969416 1123.516385,1253.186580 1154.557045,1261.653950"/>
    <poly id="114341672" type="building" color="255,230,230" fill="1" layer="-1.00" shape="1760.534185,531.334036 1721.993431,518.496102 1733.493671,484.188243 1772.034607,497.026239 1760.534185,531.334036"/>
    <poly id="204343564" type="building" color="255,230,230" fill="1" layer="-1.00" shape="1582.433367,605.178576 1587.599340,587.968748 1582.121808,586.340187 1580.052455,593.210728 1578.296133,592.687744 1575.191467,603.026878 1582.433367,605.178576"/>
    <poly id="22475825" type="building" color="255,230,230" fill="1" layer="-1.00" shape="1464.383825,460.249347 1473.396264,433.114642 1501.368477,442.346089 1509.949199,446.179160 1521.575607,410.306848 1527.122417,412.114467 1564.883629,424.436122 1574.917163,427.808635 1572.701831,433.887496 1624.916750,452.067771 1631.841679,430.692379 1649.820334,436.563741 1648.945854,439.224380 1659.245847,442.579979 1635.856243,520.465663 1606.167990,510.322557 1607.243437,506.865860 1604.407411,505.866359 1601.611052,504.900960 1600.443813,508.100332 1585.662600,502.902294 1584.432668,506.422655 1578.060406,504.343406 1578.585328,501.820405 1563.254791,497.078388 1564.962114,490.989656 1559.544607,489.173404 1554.231056,487.403617 1552.201214,493.486087 1535.189362,487.678201 1518.433996,481.953114 1520.030206,476.184420 1509.295005,472.809474 1507.269297,478.680936 1492.047195,472.919025 1491.256087,475.859063 1484.247852,473.712007 1484.836298,470.823586 1470.517590,466.723618 1471.646869,462.567985 1464.383825,460.249347"/>
    <poly id="22913989" type="amenity" color="237,199,199" fill="1" layer="-1.00" shape="1804.796724,613.235544 1828.466508,621.329177 1845.593040,653.949802 1850.898378,637.487270 1853.542452,629.283614 1856.979012,630.506018 1861.258082,631.955927 1858.877485,640.298036 1851.840481,664.915319 1845.848550,663.198747 1837.214876,690.284832 1800.673124,679.229667 1800.872406,678.522471 1798.389023,677.229761 1796.039722,673.606448 1795.274854,671.047250 1795.874146,668.436825 1793.185708,668.562276 1789.974556,667.777602 1788.739421,666.586961 1788.481787,664.904256 1777.646114,670.859757 1765.021225,666.792092 1758.613331,654.945808 1762.507521,643.011081 1774.228577,636.739465 1785.384683,640.434138 1792.544353,652.195083 1804.796724,613.235544"/>
    <poly id="22913989#1" type="building" color="255,230,230" fill="1" layer="-1.00" shape="1804.796724,613.235544 1828.466508,621.329177 1845.593040,653.949802 1850.898378,637.487270 1853.542452,629.283614 1856.979012,630.506018 1861.258082,631.955927 1858.877485,640.298036 1851.840481,664.915319 1845.848550,663.198747 1837.214876,690.284832 1800.673124,679.229667 1800.872406,678.522471 1798.389023,677.229761 1796.039722,673.606448 1795.274854,671.047250 1795.874146,668.436825 1793.185708,668.562276 1789.974556,667.777602 1788.739421,666.586961 1788.481787,664.904256 1777.646114,670.859757 1765.021225,666.792092 1758.613331,654.945808 1762.507521,643.011081 1774.228577,636.739465 1785.384683,640.434138 1792.544353,652.195083 1804.796724,613.235544"/>
    <poly id="22914017" type="parking" color="184,184,179" fill="1" layer="-1.00" shape="1687.338981,608.617458 1702.354075,613.386971 1710.203642,588.852019 1695.196560,584.082646 1687.338981,608.617458"/>
    <poly id="22914034" type="building" color="255,230,230" fill="1" layer="-1.00" shape="1655.808493,538.908085 1652.265304,537.772600 1649.930506,545.015721 1656.960649,547.274487 1657.561340,545.419596 1665.096652,547.832627 1664.409930,549.963609 1677.917292,554.292661 1678.595523,552.183737 1686.611801,554.750581 1686.044867,556.528353 1693.540057,558.929527 1695.942860,551.509973 1692.744455,550.481165 1700.606069,526.157537 1702.858430,526.890188 1705.844969,517.659862 1662.381167,503.704378 1659.248758,513.387417 1663.601591,514.783076 1655.808493,538.908085"/>
    <poly id="22914040" type="building" color="255,230,230" fill="1" layer="-1.00" shape="1602.636672,561.295683 1606.410665,562.591174 1606.769818,561.542653 1615.206980,564.450906 1614.061990,567.750702 1616.385617,568.551373 1611.848135,581.640279 1614.115748,582.417639 1605.843643,606.300069 1586.805761,599.752706 1593.719163,579.788092 1595.962590,580.564976 1602.636672,561.295683"/>
    <poly id="22914049" type="building" color="255,230,230" fill="1" layer="-1.00" shape="1573.929446,569.170821 1579.032071,552.315293 1588.286437,555.094950 1587.976312,556.111093 1589.660291,556.621564 1585.428334,570.594153 1584.081067,570.190220 1583.512435,572.056851 1573.929446,569.170821"/>
    <poly id="25758007" type="building" color="255,230,230" fill="1" layer="-1.00" shape="1633.009169,588.928940 1686.683203,605.838185 1692.984752,584.584054 1685.778494,581.844070 1684.427629,579.551257 1653.565881,570.040630 1649.156305,571.565942 1648.203162,575.369436 1645.982288,576.337325 1643.981061,577.209490 1637.393770,574.992675 1633.009169,588.928940"/>
    <poly id="303706522" type="landuse" color="194,194,130" fill="1" layer="-3.00" shape="1553.755835,503.149103 1563.598973,506.351247 1564.465133,503.701548 1595.348981,513.756590 1591.850753,524.421386 1551.132102,511.153268 1553.755835,503.149103"/>
    <poly id="31825533" type="parking" color="184,184,179" fill="1" layer="-1.00" shape="1673.036403,492.101029 1685.700481,496.247040 1684.071515,501.203995 1702.915363,507.370095 1704.621229,502.192429 1709.326034,503.739399 1710.131491,501.310746 1708.272059,500.696839 1726.162490,446.392069 1729.304498,447.419794 1730.779081,442.937598 1728.206323,442.087602 1739.702026,407.190806 1742.859961,408.229957 1745.380286,400.579383 1707.299286,388.117158 1673.036403,492.101029"/>
    <poly id="31825533#1" type="building" color="255,230,230" fill="1" layer="-1.00" shape="1673.036403,492.101029 1685.700481,496.247040 1684.071515,501.203995 1702.915363,507.370095 1704.621229,502.192429 1709.326034,503.739399 1710.131491,501.310746 1708.272059,500.696839 1726.162490,446.392069 1729.304498,447.419794 1730.779081,442.937598 1728.206323,442.087602 1739.702026,407.190806 1742.859961,408.229957 1745.380286,400.579383 1707.299286,388.117158 1673.036403,492.101029"/>
    <poly id="32773281" type="building" color="255,230,230" fill="1" layer="-1.00" shape="1891.733643,600.384332 1893.658303,594.333236 1905.719652,597.934633 1922.955291,543.362030 1911.620891,540.119192 1871.360361,528.624595 1849.097489,539.401687 1839.708669,546.018565 1838.693783,550.087488 1836.935983,555.441882 1825.766938,551.991308 1790.997563,570.024781 1788.468561,580.608352 1862.806166,602.987553 1865.991789,591.827931 1891.733643,600.384332"/>
    <poly id="334797353" type="parking" color="184,184,179" fill="1" layer="-1.00" shape="1561.897370,604.746298 1573.457038,569.406075 1586.370115,573.601181 1593.135870,552.933735 1599.989280,555.155675 1598.694706,559.096978 1601.379884,559.971331 1595.180154,578.905416 1592.567119,578.054687 1589.436783,587.637801 1578.623969,584.116790 1570.914818,607.676879 1561.897370,604.746298"/>
    <poly id="34111106" type="building" color="255,230,230" fill="1" layer="-1.00" shape="1836.014194,533.180639 1837.675023,527.835468 1842.489360,529.140234 1844.936178,521.954904 1852.408772,523.444753 1854.548831,516.686765 1852.687470,516.172775 1855.390343,507.436958 1846.465948,504.696686 1847.965032,498.959499 1841.555976,496.701512 1822.521222,489.986886 1814.910016,487.327769 1803.789023,523.265023 1836.014194,533.180639"/>
    <poly id="54777891" type="building" color="255,230,230" fill="1" layer="-1.00" shape="1750.592526,572.594034 1709.008310,558.652571 1721.612944,521.055234 1764.387698,535.175476 1750.592526,572.594034"/>
    <poly id="55033252" type="building" color="255,230,230" fill="1" layer="-1.00" shape="1780.382486,635.937030 1790.506955,639.589417 1791.908395,635.550232 1795.260807,636.537644 1798.745651,624.917175 1800.853050,625.635930 1804.755112,613.301398 1802.350240,612.532411 1801.971690,613.747203 1800.453606,613.417675 1799.864588,612.184053 1798.846630,611.853148 1797.566613,612.139333 1797.844515,611.122571 1795.562318,610.267090 1795.187659,611.281969 1794.330962,610.954202 1793.279322,609.867126 1792.464951,609.851278 1791.283853,610.028284 1791.510134,609.177176 1788.921754,608.304628 1788.496773,609.418523 1787.735751,609.148172 1786.987481,608.222547 1785.971467,607.791687 1784.749837,607.979016 1785.075035,607.018727 1782.390761,606.099874 1781.955773,607.313569 1780.736236,606.978744 1780.397237,606.161079 1779.432693,605.986763 1778.720914,605.672929 1778.791186,604.963222 1774.735904,603.617716 1774.466216,604.212438 1772.434037,603.772919 1770.994987,604.356000 1766.886561,619.008636 1767.850239,619.227375 1766.110650,624.893234 1769.253648,625.865449 1768.979856,626.671191 1772.684240,627.809877 1772.912396,626.447720 1775.962526,627.218141 1776.343016,625.903390 1779.532445,626.976508 1779.911855,625.717289 1782.653643,626.581708 1783.041020,627.400315 1782.974704,628.321199 1780.382486,635.937030"/>
    <poly id="61760168" type="building" color="255,230,230" fill="1" layer="-1.00" shape="1688.658081,645.730058 1652.534856,634.283881 1653.187804,632.230015 1633.883385,626.121753 1634.501701,624.189428 1628.625374,622.330865 1629.321221,620.144505 1624.519079,618.629028 1630.703524,599.239139 1635.802286,600.849269 1636.412109,598.939001 1642.216103,600.785053 1642.937225,598.543633 1661.199347,604.331672 1660.537900,606.407592 1690.392234,615.865339 1697.463037,618.102721 1688.658081,645.730058"/>
    <poly id="61760169" type="building" color="255,230,230" fill="1" layer="-1.00" shape="1728.240589,655.566027 1693.751105,644.729148 1710.663813,589.660926 1743.869974,596.406462 1728.240589,655.566027"/>
    <poly id="61760233" type="building" color="255,230,230" fill="1" layer="-1.00" shape="1599.768979,718.009468 1624.747452,645.476498 1670.512592,660.087596 1697.139383,668.760451 1673.369839,741.305576 1668.793124,739.816667 1599.768979,718.009468"/>
    <poly id="61760234" type="building" color="255,230,230" fill="1" layer="-1.00" shape="1685.024278,745.498640 1706.099959,675.023274 1702.786142,674.125541 1704.340936,668.833832 1723.115608,674.798675 1724.807098,677.409218 1725.932525,679.264346 1725.015417,700.289860 1707.531577,752.380429 1685.024278,745.498640"/>
    <poly id="712085021" type="amenity" color="237,199,199" fill="1" layer="-1.00" shape="1547.784284,707.600026 1573.865394,626.444319 1698.859033,665.360737 1673.426584,746.684177 1547.784284,707.600026"/>
    <poly id="800861924" type="unknown" color="51,128,255" fill="0" layer="-1.00" shape="1943.405990,26.020296 2167.267409,99.281096 1981.725929,649.312884 1759.606443,589.801839 1505.114656,1395.424000 2225.915589,1616.396527 2261.483452,1744.707513 2256.442343,1825.649678 2462.975192,1883.152027 2437.402807,1975.869668"/>
    <poly id="939137982" type="leisure" color="207,245,201" fill="1" layer="-2.00" shape="1795.171899,563.595237 1798.329421,562.578960 1802.370664,560.502161 1805.556503,558.030958 1806.775286,556.332544 1806.954489,555.413857 1806.588058,554.762314 1805.292054,554.625987 1802.037056,555.262605 1797.944555,557.071755 1793.784875,559.846216 1791.792750,561.907342 1791.556027,562.880462 1791.816558,563.585496 1792.673045,563.924368 1795.171899,563.595237"/>
    <poi id="1010180892" type="shop" color="237,199,255" layer="4.00" x="1731.97" y="553.88"/>
    <poi id="1010180893" type="amenity" color="237,199,199" layer="4.00" x="1745.24" y="559.79"/>
    <poi id="1157773834" type="amenity" color="237,199,199" layer="4.00" x="1739.39" y="619.96"/>
    <poi id="1157774656" type="shop" color="237,199,255" layer="4.00" x="1772.90" y="610.28"/>
    <poi id="1178215723" type="amenity" color="237,199,199" layer="4.00" x="1799.38" y="542.47"/>
    <poi id="1194708165" type="shop" color="237,199,255" layer="4.00" x="1712.85" y="639.41"/>
    <poi id="1194709234" type="amenity" color="237,199,199" layer="4.00" x="1635.00" y="608.60"/>
    <poi id="1288995614" type="amenity" color="237,199,199" layer="4.00" x="1633.01" y="503.23"/>
    <poi id="1295016436" type="amenity" color="237,199,199" layer="4.00" x="1795.80" y="527.84"/>
    <poi id="1295026740" type="amenity" color="237,199,199" layer="4.00" x="1754.05" y="559.14"/>
    <poi id="1314096871" type="parking" color="184,184,179" layer="4.00" x="1722.93" y="524.98"/>
    <poi id="2457631323" type="amenity" color="237,199,199" layer="4.00" x="1719.45" y="681.42"/>
    <poi id="246694246" type="amenity" color="237,199,199" layer="4.00" x="1751.47" y="562.74"/>
    <poi id="246694247" type="amenity" color="237,199,199" layer="4.00" x="1739.43" y="596.00"/>
    <poi id="246694319" type="amenity" color="237,199,199" layer="4.00" x="1794.53" y="577.79"/>
    <poi id="246694472" type="shop" color="237,199,255" layer="4.00" x="1731.02" y="593.52"/>
    <poi id="2479122670" type="tourism" color="207,245,201" layer="3.00" x="1650.35" y="544.40"/>
    <poi id="2485317647" type="building" color="255,230,230" layer="4.00" x="1774.83" y="659.41"/>
    <poi id="2485317649" type="amenity" color="237,199,199" layer="4.00" x="1677.00" y="668.22"/>
    <poi id="2485317650" type="building" color="255,230,230" layer="4.00" x="1665.83" y="656.34"/>
    <poi id="2485317651" type="amenity" color="237,199,199" layer="4.00" x="1668.56" y="656.55"/>
    <poi id="2485317652" type="tourism" color="207,245,201" layer="3.00" x="1755.71" y="665.02"/>
    <poi id="2485326387" type="parking" color="184,184,179" layer="4.00" x="1677.27" y="657.89"/>
    <poi id="2485326388" type="amenity" color="237,199,199" layer="4.00" x="1697.52" y="646.44"/>
    <poi id="2485326389" type="amenity" color="237,199,199" layer="4.00" x="1704.00" y="648.73"/>
    <poi id="2485326390" type="amenity" color="237,199,199" layer="4.00" x="1690.26" y="664.33"/>
    <poi id="2485326391" type="building" color="255,230,230" layer="4.00" x="1696.57" y="665.34"/>
    <poi id="2503474291" type="building" color="255,230,230" layer="4.00" x="1783.17" y="578.44"/>
    <poi id="2684492431" type="amenity" color="237,199,199" layer="4.00" x="1606.35" y="620.45"/>
    <poi id="2684492437" type="amenity" color="237,199,199" layer="4.00" x="1599.05" y="618.26"/>
    <poi id="2684492442" type="amenity" color="237,199,199" layer="4.00" x="1602.90" y="619.40"/>
    <poi id="2717181935" type="tourism" color="207,245,201" layer="3.00" x="1725.09" y="674.26"/>
    <poi id="2823213919" type="building" color="255,230,230" layer="4.00" x="1712.12" y="555.25"/>
    <poi id="2823213920" type="building" color="255,230,230" layer="4.00" x="1711.46" y="557.48"/>
    <poi id="2887396221" type="amenity" color="237,199,199" layer="4.00" x="1766.07" y="601.14"/>
    <poi id="2887396222" type="amenity" color="237,199,199" layer="4.00" x="1764.94" y="605.02"/>
    <poi id="2887815797" type="unknown" color="51,128,255" layer="4.00" x="1677.87" y="575.95"/>
    <poi id="2887815798" type="amenity" color="237,199,199" layer="4.00" x="1654.29" y="567.84"/>
    <poi id="3081114166" type="natural" color="140,196,107" layer="1.00" x="1616.01" y="519.06"/>
    <poi id="3081114167" type="natural" color="140,196,107" layer="1.00" x="1579.22" y="518.40"/>
    <poi id="3081114168" type="natural" color="140,196,107" layer="1.00" x="1621.54" y="520.49"/>
    <poi id="3081114169" type="natural" color="140,196,107" layer="1.00" x="1626.23" y="522.06"/>
    <poi id="3081114170" type="natural" color="140,196,107" layer="1.00" x="1614.99" y="522.26"/>
    <poi id="3081114171" type="natural" color="140,196,107" layer="1.00" x="1589.48" y="522.13"/>
    <poi id="3081114172" type="natural" color="140,196,107" layer="1.00" x="1620.68" y="523.74"/>
    <poi id="3081114173" type="natural" color="140,196,107" layer="1.00" x="1631.16" y="524.47"/>
    <poi id="3081114175" type="natural" color="140,196,107" layer="1.00" x="1625.14" y="525.93"/>
    <poi id="3081114176" type="natural" color="140,196,107" layer="1.00" x="1614.14" y="525.78"/>
    <poi id="3081114177" type="natural" color="140,196,107" layer="1.00" x="1630.41" y="527.36"/>
    <poi id="3081114178" type="natural" color="140,196,107" layer="1.00" x="1619.22" y="528.30"/>
    <poi id="3081114179" type="natural" color="140,196,107" layer="1.00" x="1612.51" y="530.12"/>
    <poi id="3081114180" type="natural" color="140,196,107" layer="1.00" x="1623.68" y="530.45"/>
    <poi id="3081114181" type="natural" color="140,196,107" layer="1.00" x="1629.16" y="531.61"/>
    <poi id="3081114182" type="natural" color="140,196,107" layer="1.00" x="1618.03" y="531.97"/>
    <poi id="3081114183" type="natural" color="140,196,107" layer="1.00" x="1622.72" y="533.64"/>
    <poi id="3081114184" type="natural" color="140,196,107" layer="1.00" x="1628.35" y="535.23"/>
    <poi id="344473394" type="amenity" color="237,199,199" layer="4.00" x="1778.80" y="580.11"/>
    <poi id="372344042" type="amenity" color="237,199,199" layer="4.00" x="1773.29" y="602.58"/>
    <poi id="5402007521" type="amenity" color="237,199,199" layer="4.00" x="1733.41" y="618.67"/>
    <poi id="5935527875" type="amenity" color="237,199,199" layer="4.00" x="1776.88" y="512.31"/>
    <poi id="769477447" type="shop" color="237,199,255" layer="4.00" x="1786.29" y="607.05"/>
    <poi id="769477506" type="amenity" color="237,199,199" layer="4.00" x="1799.76" y="571.87"/>
    <poi id="769480489" type="amenity" color="237,199,199" layer="4.00" x="1754.10" y="551.56"/>
    <poi id="769480492" type="shop" color="237,199,255" layer="4.00" x="1729.19" y="630.53"/>
    <poi id="769480494" type="amenity" color="237,199,199" layer="4.00" x="1756.63" y="544.44"/>
    <poi id="769480513" type="amenity" color="237,199,199" layer="4.00" x="1754.55" y="682.39"/>
    <poi id="769480519" type="shop" color="237,199,255" layer="4.00" x="1724.57" y="641.98"/>
    <poi id="769480534" type="amenity" color="237,199,199" layer="4.00" x="1771.80" y="597.11"/>
    <poi id="8045253714" type="amenity" color="237,199,199" layer="4.00" x="1763.60" y="509.21"/>
</additional>
