<?xml version="1.0" encoding="UTF-8"?>

<!-- generated on 2021-08-02 17:10:18 by Eclipse SUMO netconvert Version 1.9.2
<configuration xmlns:xsi="http://www.w3.org/2001/XMLSchema-instance" xsi:noNamespaceSchemaLocation="http://sumo.dlr.de/xsd/netconvertConfiguration.xsd">

    <input>
        <type-files value="osmNetconvert.typ.xml"/>
        <osm-files value="map.osm"/>
    </input>

    <output>
        <output-file value="test.net.xml"/>
    </output>

    <projection>
        <proj.utm value="true"/>
    </projection>

    <report>
        <xml-validation value="never"/>
        <aggregate-warnings value="5"/>
    </report>

</configuration>
-->

<net version="1.9" junctionCornerDetail="5" limitTurnSpeed="5.50" xmlns:xsi="http://www.w3.org/2001/XMLSchema-instance" xsi:noNamespaceSchemaLocation="http://sumo.dlr.de/xsd/net_file.xsd">

    <location netOffset="-628387.03,-4834880.22" convBoundary="0.00,0.00,2396.10,769.02" origBoundary="-79.407816,43.655519,-79.377948,43.662458" projParameter="+proj=utm +zone=17 +ellps=WGS84 +datum=WGS84 +units=m +no_defs"/>

    <type id="highway.bridleway" priority="1" numLanes="1" speed="2.78" allow="pedestrian" oneway="1" width="2.00"/>
    <type id="highway.bus_guideway" priority="1" numLanes="1" speed="27.78" allow="bus" oneway="1"/>
    <type id="highway.cycleway" priority="1" numLanes="1" speed="8.33" allow="bicycle" oneway="0" width="1.00"/>
    <type id="highway.footway" priority="1" numLanes="1" speed="2.78" allow="pedestrian" oneway="1" width="2.00"/>
    <type id="highway.ford" priority="1" numLanes="1" speed="2.78" allow="army" oneway="0"/>
    <type id="highway.living_street" priority="2" numLanes="1" speed="2.78" disallow="tram rail_urban rail rail_electric rail_fast ship" oneway="0"/>
    <type id="highway.motorway" priority="14" numLanes="2" speed="39.44" allow="private emergency authority army vip passenger hov taxi bus coach delivery truck trailer motorcycle evehicle custom1 custom2" oneway="1"/>
    <type id="highway.motorway_link" priority="9" numLanes="1" speed="22.22" allow="private emergency authority army vip passenger hov taxi bus coach delivery truck trailer motorcycle evehicle custom1 custom2" oneway="1"/>
    <type id="highway.path" priority="1" numLanes="1" speed="2.78" allow="pedestrian bicycle" oneway="0" width="2.00"/>
    <type id="highway.pedestrian" priority="1" numLanes="1" speed="2.78" allow="pedestrian" oneway="1" width="2.00"/>
    <type id="highway.primary" priority="12" numLanes="2" speed="27.78" disallow="tram rail_urban rail rail_electric rail_fast ship" oneway="0"/>
    <type id="highway.primary_link" priority="7" numLanes="1" speed="22.22" disallow="tram rail_urban rail rail_electric rail_fast ship" oneway="0"/>
    <type id="highway.raceway" priority="15" numLanes="2" speed="83.33" allow="vip" oneway="0"/>
    <type id="highway.residential" priority="3" numLanes="1" speed="13.89" disallow="tram rail_urban rail rail_electric rail_fast ship" oneway="0"/>
    <type id="highway.secondary" priority="11" numLanes="1" speed="27.78" disallow="tram rail_urban rail rail_electric rail_fast ship" oneway="0"/>
    <type id="highway.secondary_link" priority="6" numLanes="1" speed="22.22" disallow="tram rail_urban rail rail_electric rail_fast ship" oneway="0"/>
    <type id="highway.service" priority="1" numLanes="1" speed="5.56" allow="pedestrian delivery bicycle" oneway="0"/>
    <type id="highway.stairs" priority="1" numLanes="1" speed="1.39" allow="pedestrian" oneway="1" width="2.00"/>
    <type id="highway.step" priority="1" numLanes="1" speed="1.39" allow="pedestrian" oneway="1" width="2.00"/>
    <type id="highway.steps" priority="1" numLanes="1" speed="1.39" allow="pedestrian" oneway="1" width="2.00"/>
    <type id="highway.tertiary" priority="10" numLanes="1" speed="22.22" disallow="tram rail_urban rail rail_electric rail_fast ship" oneway="0"/>
    <type id="highway.tertiary_link" priority="5" numLanes="1" speed="22.22" disallow="tram rail_urban rail rail_electric rail_fast ship" oneway="0"/>
    <type id="highway.track" priority="1" numLanes="1" speed="5.56" allow="pedestrian motorcycle moped bicycle" oneway="0"/>
    <type id="highway.trunk" priority="13" numLanes="2" speed="27.78" disallow="pedestrian bicycle tram rail_urban rail rail_electric rail_fast ship" oneway="0"/>
    <type id="highway.trunk_link" priority="8" numLanes="1" speed="22.22" disallow="pedestrian bicycle tram rail_urban rail rail_electric rail_fast ship" oneway="0"/>
    <type id="highway.unclassified" priority="4" numLanes="1" speed="13.89" disallow="tram rail_urban rail rail_electric rail_fast ship" oneway="0"/>
    <type id="highway.unsurfaced" priority="1" numLanes="1" speed="8.33" disallow="tram rail_urban rail rail_electric rail_fast ship" oneway="0"/>
    <type id="railway.highspeed" priority="21" numLanes="1" speed="69.44" allow="rail_fast" oneway="1"/>
    <type id="railway.light_rail" priority="19" numLanes="1" speed="27.78" allow="rail_urban" oneway="1"/>
    <type id="railway.preserved" priority="16" numLanes="1" speed="27.78" allow="rail" oneway="1"/>
    <type id="railway.rail" priority="20" numLanes="1" speed="44.44" allow="rail" oneway="1"/>
    <type id="railway.subway" priority="18" numLanes="1" speed="27.78" allow="rail_urban" oneway="1"/>
    <type id="railway.tram" priority="17" numLanes="1" speed="13.89" allow="tram" oneway="1"/>

    <edge id=":1553140355_0" function="internal">
        <lane id=":1553140355_0_0" index="0" disallow="tram rail_urban rail rail_electric rail_fast ship" speed="3.65" length="4.67" shape="1818.12,413.42 1819.26,412.53 1820.14,412.41 1820.78,413.04 1821.16,414.43"/>
    </edge>
    <edge id=":2122030533_0" function="internal">
        <lane id=":2122030533_0_0" index="0" disallow="tram rail_urban rail rail_electric rail_fast ship" speed="3.65" length="4.67" shape="1738.99,704.13 1738.04,705.22 1737.20,705.52 1736.46,705.02 1735.81,703.73"/>
    </edge>
    <edge id=":21436518_0" function="internal">
        <lane id=":21436518_0_0" index="0" disallow="tram rail_urban rail rail_electric rail_fast ship" speed="3.65" length="4.67" shape="1402.03,477.98 1401.12,476.86 1400.97,475.97 1401.59,475.33 1402.97,474.92"/>
    </edge>
    <edge id=":2411583460_0" function="internal">
        <lane id=":2411583460_0_0" index="0" disallow="tram rail_urban rail rail_electric rail_fast ship" speed="27.78" length="8.56" shape="1758.60,615.30 1758.45,617.83 1759.12,619.61 1759.78,621.39 1759.62,623.91"/>
        <lane id=":2411583460_0_1" index="1" disallow="tram rail_urban rail rail_electric rail_fast ship" speed="27.78" length="8.56" shape="1755.50,614.49 1755.36,617.01 1756.03,618.78 1756.69,620.56 1756.53,623.07"/>
        <lane id=":2411583460_0_2" index="2" disallow="tram rail_urban rail rail_electric rail_fast ship" speed="27.78" length="8.56" shape="1755.50,614.49 1753.44,622.23"/>
    </edge>
    <edge id=":2411583460_3" function="internal">
        <lane id=":2411583460_3_0" index="0" disallow="tram rail_urban rail rail_electric rail_fast ship" speed="27.78" length="7.95" shape="1747.26,620.55 1749.31,612.88"/>
        <lane id=":2411583460_3_1" index="1" disallow="tram rail_urban rail rail_electric rail_fast ship" speed="27.78" length="7.95" shape="1750.35,621.39 1752.41,613.69"/>
    </edge>
    <edge id=":246693686_0" function="internal">
        <lane id=":246693686_0_0" index="0" disallow="tram rail_urban rail rail_electric rail_fast ship" speed="3.65" length="4.67" shape="1780.01,311.35 1781.13,310.45 1782.01,310.31 1782.66,310.93 1783.06,312.31"/>
    </edge>
    <edge id=":24959510_0" function="internal">
        <lane id=":24959510_0_0" index="0" disallow="tram rail_urban rail rail_electric rail_fast ship" speed="6.08" length="9.21" shape="1751.02,675.30 1748.40,674.83 1746.47,675.36 1745.23,676.88 1744.67,679.40"/>
    </edge>
    <edge id=":24959510_1" function="internal">
        <lane id=":24959510_1_0" index="0" disallow="tram rail_urban rail rail_electric rail_fast ship" speed="13.89" length="22.24" shape="1751.02,675.30 1729.88,668.41"/>
    </edge>
    <edge id=":24959510_2" function="internal">
        <lane id=":24959510_2_0" index="0" disallow="tram rail_urban rail rail_electric rail_fast ship" speed="9.76" length="8.41" shape="1751.02,675.30 1745.73,672.95 1743.73,671.24"/>
    </edge>
    <edge id=":24959510_3" function="internal">
        <lane id=":24959510_3_0" index="0" disallow="tram rail_urban rail rail_electric rail_fast ship" speed="3.65" length="2.34" shape="1751.02,675.30 1750.13,674.16 1750.00,673.28"/>
    </edge>
    <edge id=":24959510_18" function="internal">
        <lane id=":24959510_18_0" index="0" disallow="tram rail_urban rail rail_electric rail_fast ship" speed="9.76" length="10.61" shape="1743.73,671.24 1742.17,669.91 1740.34,666.19 1740.23,661.78"/>
    </edge>
    <edge id=":24959510_19" function="internal">
        <lane id=":24959510_19_0" index="0" disallow="tram rail_urban rail rail_electric rail_fast ship" speed="3.65" length="2.34" shape="1750.00,673.28 1750.62,672.64 1752.01,672.26"/>
    </edge>
    <edge id=":24959510_4" function="internal">
        <lane id=":24959510_4_0" index="0" disallow="tram rail_urban rail rail_electric rail_fast ship" speed="7.22" length="9.98" shape="1749.71,663.29 1749.39,666.78 1749.67,669.44 1750.54,671.26 1752.01,672.26"/>
    </edge>
    <edge id=":24959510_5" function="internal">
        <lane id=":24959510_5_0" index="0" disallow="tram rail_urban rail rail_electric rail_fast ship" speed="27.78" length="17.12" shape="1749.71,663.29 1748.45,668.14 1746.92,671.31 1745.52,674.50 1744.67,679.40"/>
        <lane id=":24959510_5_1" index="1" disallow="tram rail_urban rail rail_electric rail_fast ship" speed="27.78" length="17.12" shape="1746.55,662.79 1745.28,667.72 1743.74,670.95 1742.34,674.19 1741.48,679.17"/>
    </edge>
    <edge id=":24959510_7" function="internal">
        <lane id=":24959510_7_0" index="0" disallow="tram rail_urban rail rail_electric rail_fast ship" speed="8.37" length="6.72" shape="1743.39,662.29 1741.95,666.42 1740.19,667.96"/>
    </edge>
    <edge id=":24959510_8" function="internal">
        <lane id=":24959510_8_0" index="0" disallow="tram rail_urban rail rail_electric rail_fast ship" speed="3.65" length="2.49" shape="1743.39,662.29 1742.41,663.35 1741.56,663.62 1741.43,663.53"/>
    </edge>
    <edge id=":24959510_20" function="internal">
        <lane id=":24959510_20_0" index="0" disallow="tram rail_urban rail rail_electric rail_fast ship" speed="8.37" length="10.79" shape="1740.19,667.96 1739.22,668.82 1735.19,669.48 1729.88,668.41"/>
    </edge>
    <edge id=":24959510_21" function="internal">
        <lane id=":24959510_21_0" index="0" disallow="tram rail_urban rail rail_electric rail_fast ship" speed="3.65" length="2.19" shape="1741.43,663.53 1740.83,663.10 1740.23,661.78"/>
    </edge>
    <edge id=":24959510_9" function="internal">
        <lane id=":24959510_9_0" index="0" disallow="tram rail_urban rail rail_electric rail_fast ship" speed="6.12" length="8.81" shape="1730.86,665.37 1733.23,665.76 1735.06,665.20 1736.34,663.71 1737.07,661.28"/>
    </edge>
    <edge id=":24959510_10" function="internal">
        <lane id=":24959510_10_0" index="0" disallow="tram rail_urban rail rail_electric rail_fast ship" speed="13.89" length="22.24" shape="1730.86,665.37 1752.01,672.26"/>
    </edge>
    <edge id=":24959510_11" function="internal">
        <lane id=":24959510_11_0" index="0" disallow="tram rail_urban rail rail_electric rail_fast ship" speed="10.10" length="7.86" shape="1730.86,665.37 1735.78,667.61 1737.61,669.25"/>
    </edge>
    <edge id=":24959510_12" function="internal">
        <lane id=":24959510_12_0" index="0" disallow="tram rail_urban rail rail_electric rail_fast ship" speed="3.65" length="2.34" shape="1730.86,665.37 1731.76,666.50 1731.89,667.38"/>
    </edge>
    <edge id=":24959510_22" function="internal">
        <lane id=":24959510_22_0" index="0" disallow="tram rail_urban rail rail_electric rail_fast ship" speed="10.10" length="11.09" shape="1737.61,669.25 1739.19,670.66 1741.09,674.51 1741.48,679.17"/>
    </edge>
    <edge id=":24959510_23" function="internal">
        <lane id=":24959510_23_0" index="0" disallow="tram rail_urban rail rail_electric rail_fast ship" speed="3.65" length="2.34" shape="1731.89,667.38 1731.26,668.02 1729.88,668.41"/>
    </edge>
    <edge id=":24959510_13" function="internal">
        <lane id=":24959510_13_0" index="0" disallow="tram rail_urban rail rail_electric rail_fast ship" speed="7.73" length="10.74" shape="1731.90,678.48 1732.02,674.40 1731.72,671.36 1731.01,669.37 1729.88,668.41"/>
    </edge>
    <edge id=":24959510_14" function="internal">
        <lane id=":24959510_14_0" index="0" disallow="tram rail_urban rail rail_electric rail_fast ship" speed="27.78" length="17.93" shape="1731.90,678.48 1732.78,673.26 1734.20,669.85 1735.76,666.45 1737.07,661.28"/>
        <lane id=":24959510_14_1" index="1" disallow="tram rail_urban rail rail_electric rail_fast ship" speed="27.78" length="17.93" shape="1735.09,678.71 1735.97,673.57 1737.38,670.22 1738.93,666.87 1740.23,661.78"/>
    </edge>
    <edge id=":24959510_16" function="internal">
        <lane id=":24959510_16_0" index="0" disallow="tram rail_urban rail rail_electric rail_fast ship" speed="8.36" length="7.22" shape="1738.29,678.94 1739.44,674.43 1741.27,672.63"/>
    </edge>
    <edge id=":24959510_17" function="internal">
        <lane id=":24959510_17_0" index="0" disallow="tram rail_urban rail rail_electric rail_fast ship" speed="3.65" length="2.50" shape="1738.29,678.94 1739.17,677.80 1740.00,677.46 1740.13,677.54"/>
    </edge>
    <edge id=":24959510_24" function="internal">
        <lane id=":24959510_24_0" index="0" disallow="tram rail_urban rail rail_electric rail_fast ship" speed="8.36" length="11.26" shape="1741.27,672.63 1742.11,671.81 1746.30,671.09 1752.01,672.26"/>
    </edge>
    <edge id=":24959510_25" function="internal">
        <lane id=":24959510_25_0" index="0" disallow="tram rail_urban rail rail_electric rail_fast ship" speed="3.65" length="2.17" shape="1740.13,677.54 1740.76,677.91 1741.48,679.17"/>
    </edge>
    <edge id=":24959511_0" function="internal">
        <lane id=":24959511_0_0" index="0" disallow="tram rail_urban rail rail_electric rail_fast ship" speed="3.25" length="1.39" shape="1763.73,591.68 1765.08,592.00"/>
    </edge>
    <edge id=":24959511_1" function="internal">
        <lane id=":24959511_1_0" index="0" disallow="tram rail_urban rail rail_electric rail_fast ship" speed="11.11" length="11.45" shape="1763.73,591.68 1752.65,589.06"/>
        <lane id=":24959511_1_1" index="1" disallow="tram rail_urban rail rail_electric rail_fast ship" speed="11.11" length="11.45" shape="1764.55,588.59 1753.35,585.94"/>
    </edge>
    <edge id=":24959511_3" function="internal">
        <lane id=":24959511_3_0" index="0" disallow="tram rail_urban rail rail_electric rail_fast ship" speed="5.99" length="3.15" shape="1764.55,588.59 1763.03,587.58 1762.38,586.43"/>
    </edge>
    <edge id=":24959511_4" function="internal">
        <lane id=":24959511_4_0" index="0" disallow="tram rail_urban rail rail_electric rail_fast ship" speed="3.65" length="2.34" shape="1764.55,588.59 1763.60,587.51 1763.42,586.63"/>
    </edge>
    <edge id=":24959511_20" function="internal">
        <lane id=":24959511_20_0" index="0" disallow="tram rail_urban rail rail_electric rail_fast ship" speed="5.99" length="4.83" shape="1762.38,586.43 1762.02,585.80 1761.61,583.70 1761.87,581.75"/>
    </edge>
    <edge id=":24959511_21" function="internal">
        <lane id=":24959511_21_0" index="0" disallow="tram rail_urban rail rail_electric rail_fast ship" speed="3.65" length="2.34" shape="1763.42,586.63 1764.02,585.96 1765.38,585.50"/>
    </edge>
    <edge id=":24959511_5" function="internal">
        <lane id=":24959511_5_0" index="0" disallow="tram rail_urban rail rail_electric rail_fast ship" speed="3.65" length="2.26" shape="1767.89,583.91 1766.21,582.41"/>
    </edge>
    <edge id=":24959511_6" function="internal">
        <lane id=":24959511_6_0" index="0" disallow="tram rail_urban rail rail_electric rail_fast ship" speed="27.78" length="8.59" shape="1767.89,583.91 1765.08,592.00"/>
        <lane id=":24959511_6_1" index="1" disallow="tram rail_urban rail rail_electric rail_fast ship" speed="27.78" length="8.59" shape="1764.88,582.83 1762.05,590.98"/>
    </edge>
    <edge id=":24959511_8" function="internal">
        <lane id=":24959511_8_0" index="0" disallow="tram rail_urban rail rail_electric rail_fast ship" speed="7.91" length="1.60" shape="1764.88,582.83 1763.77,583.98"/>
    </edge>
    <edge id=":24959511_9" function="internal">
        <lane id=":24959511_9_0" index="0" disallow="tram rail_urban rail rail_electric rail_fast ship" speed="3.65" length="2.34" shape="1764.88,582.83 1763.72,583.69 1762.83,583.80"/>
    </edge>
    <edge id=":24959511_22" function="internal">
        <lane id=":24959511_22_0" index="0" disallow="tram rail_urban rail rail_electric rail_fast ship" speed="7.91" length="10.92" shape="1763.77,583.98 1763.23,584.55 1760.22,585.70 1756.66,586.19 1753.35,585.94"/>
    </edge>
    <edge id=":24959511_23" function="internal">
        <lane id=":24959511_23_0" index="0" disallow="tram rail_urban rail rail_electric rail_fast ship" speed="3.65" length="2.34" shape="1762.83,583.80 1762.22,583.15 1761.87,581.75"/>
    </edge>
    <edge id=":24959511_10" function="internal">
        <lane id=":24959511_10_0" index="0" disallow="tram rail_urban rail rail_electric rail_fast ship" speed="4.97" length="4.39" shape="1754.75,579.70 1755.76,580.07 1757.04,580.62 1758.21,580.95 1758.86,580.67"/>
    </edge>
    <edge id=":24959511_11" function="internal">
        <lane id=":24959511_11_0" index="0" disallow="tram rail_urban rail rail_electric rail_fast ship" speed="11.11" length="11.71" shape="1754.75,579.70 1766.21,582.41"/>
        <lane id=":24959511_11_1" index="1" disallow="tram rail_urban rail rail_electric rail_fast ship" speed="11.11" length="11.71" shape="1754.05,582.82 1765.38,585.50"/>
    </edge>
    <edge id=":24959511_13" function="internal">
        <lane id=":24959511_13_0" index="0" disallow="tram rail_urban rail rail_electric rail_fast ship" speed="7.21" length="6.00" shape="1754.05,582.82 1757.01,584.03 1759.26,585.69"/>
    </edge>
    <edge id=":24959511_14" function="internal">
        <lane id=":24959511_14_0" index="0" disallow="tram rail_urban rail rail_electric rail_fast ship" speed="3.65" length="2.34" shape="1754.05,582.82 1755.05,583.86 1755.26,584.73"/>
    </edge>
    <edge id=":24959511_24" function="internal">
        <lane id=":24959511_24_0" index="0" disallow="tram rail_urban rail rail_electric rail_fast ship" speed="7.21" length="6.24" shape="1759.26,585.69 1759.82,586.10 1761.74,588.57 1762.05,590.98"/>
    </edge>
    <edge id=":24959511_25" function="internal">
        <lane id=":24959511_25_0" index="0" disallow="tram rail_urban rail rail_electric rail_fast ship" speed="3.65" length="2.34" shape="1755.26,584.73 1754.69,585.42 1753.35,585.94"/>
    </edge>
    <edge id=":24959511_15" function="internal">
        <lane id=":24959511_15_0" index="0" disallow="tram rail_urban rail rail_electric rail_fast ship" speed="4.17" length="3.34" shape="1755.98,588.93 1752.65,589.06"/>
    </edge>
    <edge id=":24959511_16" function="internal">
        <lane id=":24959511_16_0" index="0" disallow="tram rail_urban rail rail_electric rail_fast ship" speed="27.78" length="8.72" shape="1755.98,588.93 1758.86,580.67"/>
        <lane id=":24959511_16_1" index="1" disallow="tram rail_urban rail rail_electric rail_fast ship" speed="27.78" length="8.72" shape="1759.02,589.95 1761.87,581.75"/>
    </edge>
    <edge id=":24959511_18" function="internal">
        <lane id=":24959511_18_0" index="0" disallow="tram rail_urban rail rail_electric rail_fast ship" speed="6.40" length="3.67" shape="1759.02,589.95 1760.05,588.14 1761.19,587.04"/>
    </edge>
    <edge id=":24959511_19" function="internal">
        <lane id=":24959511_19_0" index="0" disallow="tram rail_urban rail rail_electric rail_fast ship" speed="3.65" length="2.34" shape="1759.02,589.95 1760.16,589.07 1761.04,588.95"/>
    </edge>
    <edge id=":24959511_26" function="internal">
        <lane id=":24959511_26_0" index="0" disallow="tram rail_urban rail rail_electric rail_fast ship" speed="6.40" length="4.62" shape="1761.19,587.04 1761.67,586.58 1763.56,585.60 1765.38,585.50"/>
    </edge>
    <edge id=":24959511_27" function="internal">
        <lane id=":24959511_27_0" index="0" disallow="tram rail_urban rail rail_electric rail_fast ship" speed="3.65" length="2.34" shape="1761.04,588.95 1761.67,589.58 1762.05,590.98"/>
    </edge>
    <edge id=":24959512_0" function="internal">
        <lane id=":24959512_0_0" index="0" disallow="tram rail_urban rail rail_electric rail_fast ship" speed="18.05" length="11.82" shape="1616.26,632.61 1605.07,628.80"/>
    </edge>
    <edge id=":24959512_1" function="internal">
        <lane id=":24959512_1_0" index="0" disallow="tram rail_urban rail rail_electric rail_fast ship" speed="7.15" length="10.91" shape="1616.26,632.61 1613.85,631.28 1612.45,629.34 1612.05,626.81 1612.66,623.67"/>
    </edge>
    <edge id=":24959512_2" function="internal">
        <lane id=":24959512_2_0" index="0" disallow="tram rail_urban rail rail_electric rail_fast ship" speed="3.65" length="4.67" shape="1616.26,632.61 1615.40,631.46 1615.29,630.57 1615.93,629.95 1617.33,629.59"/>
    </edge>
    <edge id=":24959512_3" function="internal">
        <lane id=":24959512_3_0" index="0" disallow="tram rail_urban rail rail_electric rail_fast ship" speed="5.43" length="5.86" shape="1615.71,624.65 1615.33,626.43 1615.48,627.85 1616.14,628.90 1617.33,629.59"/>
    </edge>
    <edge id=":24959512_4" function="internal">
        <lane id=":24959512_4_0" index="0" disallow="tram rail_urban rail rail_electric rail_fast ship" speed="7.66" length="13.00" shape="1615.71,624.65 1614.20,627.51 1611.92,629.16 1608.88,629.59 1605.07,628.80"/>
    </edge>
    <edge id=":24959512_5" function="internal">
        <lane id=":24959512_5_0" index="0" disallow="tram rail_urban rail rail_electric rail_fast ship" speed="3.65" length="2.63" shape="1615.71,624.65 1614.58,625.55 1613.69,625.68 1613.48,625.48"/>
    </edge>
    <edge id=":24959512_9" function="internal">
        <lane id=":24959512_9_0" index="0" disallow="tram rail_urban rail rail_electric rail_fast ship" speed="3.65" length="2.05" shape="1613.48,625.48 1613.05,625.05 1612.66,623.67"/>
    </edge>
    <edge id=":24959512_6" function="internal">
        <lane id=":24959512_6_0" index="0" disallow="tram rail_urban rail rail_electric rail_fast ship" speed="6.09" length="7.83" shape="1606.08,625.76 1608.49,626.30 1610.39,626.12 1611.78,625.25 1612.66,623.67"/>
    </edge>
    <edge id=":24959512_7" function="internal">
        <lane id=":24959512_7_0" index="0" disallow="tram rail_urban rail rail_electric rail_fast ship" speed="18.05" length="11.88" shape="1606.08,625.76 1617.33,629.59"/>
    </edge>
    <edge id=":24959512_8" function="internal">
        <lane id=":24959512_8_0" index="0" disallow="tram rail_urban rail rail_electric rail_fast ship" speed="3.65" length="2.13" shape="1606.08,625.76 1606.97,626.90 1607.07,627.58"/>
    </edge>
    <edge id=":24959512_10" function="internal">
        <lane id=":24959512_10_0" index="0" disallow="tram rail_urban rail rail_electric rail_fast ship" speed="3.65" length="2.55" shape="1607.07,627.58 1607.10,627.79 1606.46,628.42 1605.07,628.80"/>
    </edge>
    <edge id=":24959514_0" function="internal">
        <lane id=":24959514_0_0" index="0" disallow="tram rail_urban rail rail_electric rail_fast ship" speed="3.65" length="4.67" shape="1573.93,620.70 1572.78,619.84 1572.42,619.02 1572.86,618.24 1574.10,617.51"/>
    </edge>
    <edge id=":24959515_0" function="internal">
        <lane id=":24959515_0_0" index="0" disallow="tram rail_urban rail rail_electric rail_fast ship" speed="4.79" length="4.34" shape="1641.72,558.30 1637.76,556.53"/>
    </edge>
    <edge id=":24959515_1" function="internal">
        <lane id=":24959515_1_0" index="0" disallow="tram rail_urban rail rail_electric rail_fast ship" speed="11.11" length="12.20" shape="1641.72,558.30 1630.10,554.65"/>
        <lane id=":24959515_1_1" index="1" disallow="tram rail_urban rail rail_electric rail_fast ship" speed="11.11" length="12.20" shape="1642.70,555.25 1631.04,551.59"/>
    </edge>
    <edge id=":24959515_3" function="internal">
        <lane id=":24959515_3_0" index="0" disallow="tram rail_urban rail rail_electric rail_fast ship" speed="6.88" length="4.71" shape="1642.70,555.25 1640.48,554.00 1639.01,552.42"/>
    </edge>
    <edge id=":24959515_4" function="internal">
        <lane id=":24959515_4_0" index="0" disallow="tram rail_urban rail rail_electric rail_fast ship" speed="3.65" length="2.34" shape="1642.70,555.25 1641.80,554.12 1641.67,553.24"/>
    </edge>
    <edge id=":24959515_18" function="internal">
        <lane id=":24959515_18_0" index="0" disallow="tram rail_urban rail rail_electric rail_fast ship" speed="6.88" length="5.52" shape="1639.01,552.42 1638.61,551.98 1637.47,549.61 1637.47,547.31"/>
    </edge>
    <edge id=":24959515_19" function="internal">
        <lane id=":24959515_19_0" index="0" disallow="tram rail_urban rail rail_electric rail_fast ship" speed="3.65" length="2.34" shape="1641.67,553.24 1642.30,552.60 1643.68,552.21"/>
    </edge>
    <edge id=":24959515_5" function="internal">
        <lane id=":24959515_5_0" index="0" disallow="tram rail_urban rail rail_electric rail_fast ship" speed="4.71" length="4.24" shape="1640.51,548.30 1644.66,549.16"/>
    </edge>
    <edge id=":24959515_6" function="internal">
        <lane id=":24959515_6_0" index="0" disallow="tram rail_urban rail rail_electric rail_fast ship" speed="16.67" length="8.68" shape="1640.51,548.30 1637.76,556.53"/>
    </edge>
    <edge id=":24959515_7" function="internal">
        <lane id=":24959515_7_0" index="0" disallow="tram rail_urban rail rail_electric rail_fast ship" speed="7.07" length="3.51" shape="1640.51,548.30 1639.10,550.14 1638.03,550.67"/>
    </edge>
    <edge id=":24959515_8" function="internal">
        <lane id=":24959515_8_0" index="0" disallow="tram rail_urban rail rail_electric rail_fast ship" speed="3.65" length="2.34" shape="1640.51,548.30 1639.38,549.20 1638.50,549.33"/>
    </edge>
    <edge id=":24959515_20" function="internal">
        <lane id=":24959515_20_0" index="0" disallow="tram rail_urban rail rail_electric rail_fast ship" speed="7.07" length="7.22" shape="1638.03,550.67 1636.63,551.37 1633.74,551.88 1631.04,551.59"/>
    </edge>
    <edge id=":24959515_21" function="internal">
        <lane id=":24959515_21_0" index="0" disallow="tram rail_urban rail rail_electric rail_fast ship" speed="3.65" length="2.34" shape="1638.50,549.33 1637.86,548.70 1637.47,547.31"/>
    </edge>
    <edge id=":24959515_9" function="internal">
        <lane id=":24959515_9_0" index="0" disallow="tram rail_urban rail rail_electric rail_fast ship" speed="5.03" length="4.91" shape="1632.92,545.47 1637.47,547.31"/>
    </edge>
    <edge id=":24959515_10" function="internal">
        <lane id=":24959515_10_0" index="0" disallow="tram rail_urban rail rail_electric rail_fast ship" speed="11.11" length="12.29" shape="1632.92,545.47 1644.66,549.16"/>
        <lane id=":24959515_10_1" index="1" disallow="tram rail_urban rail rail_electric rail_fast ship" speed="11.11" length="12.29" shape="1631.98,548.53 1643.68,552.21"/>
    </edge>
    <edge id=":24959515_12" function="internal">
        <lane id=":24959515_12_0" index="0" disallow="tram rail_urban rail rail_electric rail_fast ship" speed="6.92" length="5.09" shape="1631.98,548.53 1634.35,549.79 1636.06,551.49"/>
    </edge>
    <edge id=":24959515_13" function="internal">
        <lane id=":24959515_13_0" index="0" disallow="tram rail_urban rail rail_electric rail_fast ship" speed="3.65" length="2.34" shape="1631.98,548.53 1632.89,549.65 1633.04,550.53"/>
    </edge>
    <edge id=":24959515_22" function="internal">
        <lane id=":24959515_22_0" index="0" disallow="tram rail_urban rail rail_electric rail_fast ship" speed="6.92" length="5.52" shape="1636.06,551.49 1636.41,551.84 1637.71,554.23 1637.76,556.53"/>
    </edge>
    <edge id=":24959515_23" function="internal">
        <lane id=":24959515_23_0" index="0" disallow="tram rail_urban rail rail_electric rail_fast ship" speed="3.65" length="2.34" shape="1633.04,550.53 1632.42,551.18 1631.04,551.59"/>
    </edge>
    <edge id=":24959515_14" function="internal">
        <lane id=":24959515_14_0" index="0" disallow="tram rail_urban rail rail_electric rail_fast ship" speed="4.87" length="4.71" shape="1634.73,555.49 1630.10,554.65"/>
    </edge>
    <edge id=":24959515_15" function="internal">
        <lane id=":24959515_15_0" index="0" disallow="tram rail_urban rail rail_electric rail_fast ship" speed="16.67" length="8.62" shape="1634.73,555.49 1637.47,547.31"/>
    </edge>
    <edge id=":24959515_16" function="internal">
        <lane id=":24959515_16_0" index="0" disallow="tram rail_urban rail rail_electric rail_fast ship" speed="6.93" length="3.54" shape="1634.73,555.49 1636.11,553.67 1637.23,553.08"/>
    </edge>
    <edge id=":24959515_17" function="internal">
        <lane id=":24959515_17_0" index="0" disallow="tram rail_urban rail rail_electric rail_fast ship" speed="3.65" length="2.34" shape="1634.73,555.49 1635.88,554.61 1636.77,554.50"/>
    </edge>
    <edge id=":24959515_24" function="internal">
        <lane id=":24959515_24_0" index="0" disallow="tram rail_urban rail rail_electric rail_fast ship" speed="6.93" length="6.68" shape="1637.23,553.08 1638.43,552.44 1641.14,551.92 1643.68,552.21"/>
    </edge>